sectionalized/peak_load/100pc/TNB_DUMA_VLN.Txt

SYMMETRICAL COMPONENT VOLTAGES BY BUS (for 3-phase buses)

Bus               Mag:   V1 (kV)    p.u.     V2 (kV)   %V2/V1    V0 (kV)    %V0/V1

ppu_duma_33kv        18.89     0.9915  1.332E-008  7.05E-008 1.239E-009 6.561E-009
ppu_duma_11kv_a      6.185      0.974  5.503E-009  8.897E-008 1.429E-010 2.311E-009
ppu_duma_11kv_b      6.043     0.9516  1.66E-008  2.746E-007 4.816E-008 7.969E-007
rpplngi2             6.171     0.9718  1.661E-008  2.692E-007 4.915E-008 7.964E-007
pdtjlnmasjid         6.268      0.987  1.662E-008  2.652E-007 4.989E-008 7.959E-007
bella                6.334     0.9973  1.663E-008  2.626E-007 5.039E-008 7.956E-007
pstpdgn              6.366      1.002  1.664E-008  2.614E-007 5.064E-008 7.955E-007
atria_1              6.237      0.982  1.662E-008  2.664E-007 4.957E-008 7.949E-007
hawker               6.268      0.987  1.655E-008  2.641E-007 5.031E-008 8.025E-007
duma7                6.094     0.9595  1.858E-008  3.049E-007 4.964E-008 8.146E-007
haus                 6.202     0.9766  2.162E-008  3.486E-007 2.527E-007 4.074E-006
duma6                6.499      1.023  3.649E-008  5.615E-007 1.099E-006 1.691E-005
duma13               6.771      1.066  5.497E-008  8.118E-007 2.014E-006 2.974E-005
ssu_duma5_im2        6.804      1.071  5.831E-008  8.57E-007 2.025E-006 2.976E-005
pdtlitrak            6.378      1.004  1.651E-008  2.589E-007 5.167E-008 8.101E-007
duma12               6.516      1.026  1.646E-008  2.526E-007 5.314E-008 8.156E-007
tmngh4                6.65      1.047  1.642E-008  2.47E-007 6.875E-008 1.034E-006
ssu_tmegah3_ir1      6.703      1.055  1.64E-008  2.447E-007 7.516E-008 1.121E-006
tmngh2               6.725      1.059  1.639E-008  2.437E-007 7.788E-008 1.158E-006
ssu_uptwres_im2      6.094     0.9595  1.658E-008  2.722E-007 5.279E-008 8.663E-007
maybank              6.171     0.9718  1.658E-008  2.686E-007 5.338E-008 8.649E-007
duma8                6.186     0.9741  1.658E-008  2.68E-007 5.454E-008 8.816E-007
duma9                6.275      0.988  1.664E-008  2.651E-007 4.995E-008 7.96E-007
duma1                 6.37      1.003  1.665E-008  2.614E-007 5.068E-008 7.955E-007
elite                6.405      1.008  1.666E-008  2.601E-007 5.094E-008 7.953E-007
pamdra               6.201     0.9763  5.515E-009  8.894E-008 1.434E-010 2.313E-009
duma4                6.251     0.9843  5.552E-009  8.883E-008 1.947E-010 3.114E-009
plsdra                6.36      1.001  5.637E-009  8.862E-008 3.804E-010 5.981E-009
prmte                6.282     0.9892  5.574E-009  8.874E-008 3.018E-010 4.805E-009
prmta                6.299     0.9919  5.587E-009  8.869E-008 3.052E-010 4.845E-009
pmontb               6.316     0.9945   5.6E-009  8.866E-008 3.33E-010 5.273E-009
plngi_b              6.263     0.9862  5.559E-009  8.876E-008 1.453E-010 2.319E-009
plngi_d              6.305     0.9928  5.589E-009  8.865E-008 1.468E-010 2.329E-009
sprk9                6.455      1.016  5.703E-009  8.835E-008 1.649E-010 2.554E-009
bomba                6.472      1.019  5.716E-009  8.832E-008 1.797E-010 2.777E-009
sprk8                6.513      1.025  5.747E-009  8.824E-008 2.307E-010 3.542E-009
ssu_dsarcntr_ir1     6.226     0.9804  5.533E-009  8.886E-008 1.438E-010 2.31E-009
duma10               6.363      1.002  5.632E-009  8.852E-008 1.511E-010 2.375E-009
balaipolis           6.364      1.002  5.633E-009  8.851E-008 1.512E-010 2.376E-009
ssu_uptwres_ir1      6.376      1.004  5.648E-009  8.859E-008 3.835E-010 6.016E-009
ppu_duma_vcb1            0          0          0          0         0         0
